File F:\SAP2000 OAPI\For Use\s2k files\SW-H4.0-OP0.s2k was saved on m/d/yy at h:mm:ss
 
TABLE:  "PROGRAM CONTROL"
   ProgramName=SAP2000   Version=25.0.0   ProgLevel=Ultimate   LicenseNum=3010*1GNRSDXURVM2YJU   LicenseOS=Yes   LicenseSC=Yes   LicenseHT=No   CurrUnits="KN, mm, C"   SteelCode="AISC 360-16"   ConcCode="ACI 318-19"   AlumCode="AA 2015" _
        ColdCode=AISI-16   RegenHinge=Yes
 
TABLE:  "ACTIVE DEGREES OF FREEDOM"
   UX=Yes   UY=No   UZ=Yes   RX=No   RY=Yes   RZ=No
 
TABLE:  "ANALYSIS OPTIONS"
   Solver=Advanced   SolverProc=Auto   Force32Bit=No   StiffCase=None   GeomMod=None   HingeOpt="In Elements"   NumAThreads=0   MaxFileSize=0   NumDThreads=0   NumRThreads=0   UseMMFiles="Program Determined"   AllowDiff=No
 
TABLE:  "COORDINATE SYSTEMS"
   Name=GLOBAL   Type=Cartesian   X=0   Y=0   Z=0   AboutZ=0   AboutY=0   AboutX=0
 
TABLE:  "GRID LINES"
   CoordSys=GLOBAL   AxisDir=X   GridID=A   XRYZCoord=0   LineType=Primary   LineColor=Gray8Dark   Visible=Yes   BubbleLoc=End   AllVisible=Yes   BubbleSize=625
   CoordSys=GLOBAL   AxisDir=X   GridID=B   XRYZCoord=200   LineType=Primary   LineColor=Gray8Dark   Visible=Yes   BubbleLoc=End
   CoordSys=GLOBAL   AxisDir=X   GridID=C   XRYZCoord=800   LineType=Primary   LineColor=Gray8Dark   Visible=Yes   BubbleLoc=End
   CoordSys=GLOBAL   AxisDir=X   GridID=D   XRYZCoord=1000   LineType=Primary   LineColor=Gray8Dark   Visible=Yes   BubbleLoc=End
   CoordSys=GLOBAL   AxisDir=Y   GridID=1   XRYZCoord=0   LineType=Primary   LineColor=Gray8Dark   Visible=Yes   BubbleLoc=Start
   CoordSys=GLOBAL   AxisDir=Z   GridID=Z1   XRYZCoord=0   LineType=Primary   LineColor=Gray8Dark   Visible=Yes   BubbleLoc=End
   CoordSys=GLOBAL   AxisDir=Z   GridID=Z2   XRYZCoord=2000   LineType=Primary   LineColor=Gray8Dark   Visible=Yes   BubbleLoc=End
   CoordSys=GLOBAL   AxisDir=Z   GridID=Z3   XRYZCoord=4000   LineType=Primary   LineColor=Gray8Dark   Visible=Yes   BubbleLoc=End
 
TABLE:  "MATERIAL PROPERTIES 01 - GENERAL"
   Material=AllSteelReinforcemet   Type=Rebar   Grade="Grade 60"   SymType=Uniaxial   TempDepend=No   Color=Red   GUID=659c81ea-c9de-4819-9515-e87f6d49da45   Notes="Rebar added 12/21/2024 4:18:12 PM"
   Material=C30/37   Type=Concrete   Grade=C30/37   SymType=Isotropic   TempDepend=No   Color=Blue   GUID=13d59beb-527f-4e0a-ba22-296d4e2ea362   Notes="EN 1992-1-1 per EN 206-1 C30/37 12/22/2025 4:49:11 PM"
   Material=ConfinedConcrete   Type=Concrete   Grade="f'c 4000 psi"   SymType=Isotropic   TempDepend=No   Color=Green   GUID=a3cd4140-6268-487a-8ff2-0bca25f05375   Notes="Concrete added 12/21/2024 4:23:15 PM"
   Material=S355   Type=Steel   Grade=S355   SymType=Isotropic   TempDepend=No   Color=Gray8Dark   Notes="EN 1993-1-1 per EN 10025-2 S355 12/22/2025 4:49:11 PM"
   Material=Tendon   Type=Tendon   SymType=Uniaxial   TempDepend=No   Color=Blue   GUID=cb2d4e58-2c40-4098-bbd7-d857ec0ee7a5   Notes="Tendon added 12/21/2024 7:06:27 PM"
   Material=UnconfinedConcrete   Type=Concrete   Grade="f'c 4000 psi"   SymType=Isotropic   TempDepend=No   Color=Cyan   GUID=96d116dc-92ae-44a8-af7f-00f2c43e16a4   Notes="Concrete added 12/21/2024 4:23:15 PM"
 
TABLE:  "MATERIAL PROPERTIES 02 - BASIC MECHANICAL PROPERTIES"
   Material=AllSteelReinforcemet   UnitWeight=0   UnitMass=0   E1=199.947978795958   A1=1.16999994421006E-05
   Material=C30/37   UnitWeight=2.499261766E-08   UnitMass=2.5485377E-12   E1=33   G12=13.75   U12=0.2   A1=1E-05
   Material=ConfinedConcrete   UnitWeight=0   UnitMass=0   E1=37.2316926033852   G12=15.5132052514105   U12=0.2   A1=9.89999952793124E-06
   Material=S355   UnitWeight=7.69728639422648E-08   UnitMass=7.84904737995992E-12   E1=210   G12=80.7692307692308   U12=0.3   A1=1.17E-05
   Material=Tendon   UnitWeight=7.69728639422648E-08   UnitMass=7.84904737995992E-12   E1=196.5005998512   A1=1.16999994421006E-05
   Material=UnconfinedConcrete   UnitWeight=0   UnitMass=0   E1=37.2316926033852   G12=14.8926770413541   U12=0.25   A1=9.89999952793124E-06
 
TABLE:  "MATERIAL PROPERTIES 03A - STEEL DATA"
   Material=S355   Fy=0.355   Fu=0.51   EffFy=0.3905   EffFu=0.561   SSCurveOpt=Simple   SSHysType=Kinematic   SHard=0.015   SMax=0.11   SRup=0.17   FinalSlope=-0.1   CoupModType="Von Mises"
 
TABLE:  "MATERIAL PROPERTIES 03B - CONCRETE DATA"
   Material=C30/37   Fc=0.03   eFc=0.03   LtWtConc=No   SSCurveOpt=Mander   SSHysType=Takeda   SFc=0.00181818   SCap=0.005   FinalSlope=-0.1   FAngle=0   DAngle=0   CoupModType="Modified Darwin-Pecknold"
   Material=ConfinedConcrete   Fc=0.0275790315580631   eFc=0.0275790315580631   LtWtConc=No   SSCurveOpt="User Defined"   SSHysType=Takeda   FAngle=0   DAngle=0   CoupModType="Modified Darwin-Pecknold"
   Material=UnconfinedConcrete   Fc=0.0275790315580631   eFc=0.0275790315580631   LtWtConc=No   SSCurveOpt="User Defined"   SSHysType=Takeda   FAngle=0   DAngle=0   CoupModType="Modified Darwin-Pecknold"
 
TABLE:  "MATERIAL PROPERTIES 03E - REBAR DATA"
   Material=AllSteelReinforcemet   Fy=0.482633052266105   Fu=0.689475788951578   EffFy=0.568817525885052   EffFu=0.758423367846736   SSCurveOpt="User Defined"   SSHysType=Kinematic   CoupModType="Von Mises"
 
TABLE:  "MATERIAL PROPERTIES 03F - TENDON DATA"
   Material=Tendon   Fy=1.68990515872032   Fu=1.86158463016926   SSCurveOpt="270 ksi"   SSHysType=Kinematic   FinalSlope=-0.1   CoupModType="Von Mises"
 
TABLE:  "MATERIAL PROPERTIES 03J - COUPLED NONLINEAR VON MISES DATA"
   Material=AllSteelReinforcemet   YieldStress=0.568817525885052   LinIsoHard=No   LinKinHard=No   NLIsoSaHard=No
   Material=S355   YieldStress=0.3905   LinIsoHard=No   LinKinHard=No   NLIsoSaHard=No
   Material=Tendon   YieldStress=1.68990515872032   LinIsoHard=No   LinKinHard=No   NLIsoSaHard=No
 
TABLE:  "MATERIAL PROPERTIES 04 - USER STRESS-STRAIN CURVES"
   Material=AllSteelReinforcemet   Point=1   Strain=-0.2   Stress=-0.689475788951578
   Material=AllSteelReinforcemet   Point=2   Strain=-0.1   Stress=-0.689475788951578
   Material=AllSteelReinforcemet   Point=3   Strain=-0.002414   Stress=-0.482633052266105
   Material=AllSteelReinforcemet   Point=4   Strain=0   Stress=0   PointID=A
   Material=AllSteelReinforcemet   Point=5   Strain=0.002414   Stress=0.482633052266105
   Material=AllSteelReinforcemet   Point=6   Strain=0.1   Stress=0.689475788951578
   Material=AllSteelReinforcemet   Point=7   Strain=0.2   Stress=0.689475788951578
   Material=ConfinedConcrete   Point=1   Strain=-0.008889   Stress=-0.0276252264359229
   Material=ConfinedConcrete   Point=2   Strain=-0.006667   Stress=-0.0276252264359229
   Material=ConfinedConcrete   Point=3   Strain=-0.002889   Stress=-0.0373847562285325
   Material=ConfinedConcrete   Point=4   Strain=-0.001778   Stress=-0.0373847562285325
   Material=ConfinedConcrete   Point=5   Strain=-0.000576   Stress=-0.0214495917942836
   Material=ConfinedConcrete   Point=6   Strain=0   Stress=0   PointID=A
   Material=ConfinedConcrete   Point=7   Strain=0.004444   Stress=2.14495917942836E-08
   Material=ConfinedConcrete   Point=8   Strain=0.00576   Stress=2.14495917942836E-08
   Material=UnconfinedConcrete   Point=1   Strain=-0.008889   Stress=-0.000275790315580631
   Material=UnconfinedConcrete   Point=2   Strain=-0.001778   Stress=-0.000275790315580631
   Material=UnconfinedConcrete   Point=3   Strain=-0.0009333   Stress=-0.0275790315580631
   Material=UnconfinedConcrete   Point=4   Strain=-0.0008444   Stress=-0.0275790315580631
   Material=UnconfinedConcrete   Point=5   Strain=-0.0004938   Stress=-0.0183862508639717
   Material=UnconfinedConcrete   Point=6   Strain=0   Stress=0   PointID=A
   Material=UnconfinedConcrete   Point=7   Strain=4.938E-10   Stress=1.83883192913386E-08
   Material=UnconfinedConcrete   Point=8   Strain=0.004444   Stress=1.83883192913386E-08
 
TABLE:  "MATERIAL PROPERTIES 06 - DAMPING PARAMETERS"
   Material=AllSteelReinforcemet   ModalRatio=0   VisMass=0   VisStiff=0   HysMass=0   HysStiff=0
   Material=C30/37   ModalRatio=0   VisMass=0   VisStiff=0   HysMass=0   HysStiff=0
   Material=ConfinedConcrete   ModalRatio=0   VisMass=0   VisStiff=0   HysMass=0   HysStiff=0
   Material=S355   ModalRatio=0   VisMass=0   VisStiff=0   HysMass=0   HysStiff=0
   Material=Tendon   ModalRatio=0   VisMass=0   VisStiff=0   HysMass=0   HysStiff=0
   Material=UnconfinedConcrete   ModalRatio=0   VisMass=0   VisStiff=0   HysMass=0   HysStiff=0
 
TABLE:  "MATERIAL PROPERTIES 09 - ACCEPTANCE CRITERIA"
   Material=AllSteelReinforcemet   IOTens=0.01   LSTens=0.02   CPTens=0.05   IOComp=-0.005   LSComp=-0.01   CPComp=-0.02
   Material=C30/37   IOTens=0.01   LSTens=0.02   CPTens=0.05   IOComp=-0.003   LSComp=-0.006   CPComp=-0.015   IgnoreTens=Yes
   Material=ConfinedConcrete   IOTens=0.01   LSTens=0.02   CPTens=0.05   IOComp=-0.003   LSComp=-0.006   CPComp=-0.015   IgnoreTens=Yes
   Material=S355   IOTens=0.01   LSTens=0.02   CPTens=0.05   IOComp=-0.005   LSComp=-0.01   CPComp=-0.02
   Material=Tendon   IOTens=0.015   LSTens=0.023   CPTens=0.03   IOComp=-0.015   LSComp=-0.023   CPComp=-0.03
   Material=UnconfinedConcrete   IOTens=0.01   LSTens=0.02   CPTens=0.05   IOComp=-0.003   LSComp=-0.006   CPComp=-0.015   IgnoreTens=Yes
 
TABLE:  "AREA SECTION PROPERTIES"
   Section=.3%unconfined   Material=C30/37   MatAngle=0   AreaType=Shell   Type=Shell-Layered   Thickness=125   BendThick=304.8   Color=Green   F11Mod=1   F22Mod=1   F12Mod=1   M11Mod=1   M22Mod=1   M12Mod=1   V13Mod=1   V23Mod=1   MMod=1 _
        WMod=1   GUID=87b58f09-e66b-4f30-a793-7e39326ae76e   Notes="Added 12/21/2024 4:46:29 PM"
   Section=.4%unconfined   Material=C30/37   MatAngle=0   AreaType=Shell   Type=Shell-Layered   Thickness=304.8   BendThick=304.8   Color=Green   F11Mod=1   F22Mod=1   F12Mod=1   M11Mod=1   M22Mod=1   M12Mod=1   V13Mod=1   V23Mod=1   MMod=1 _
        WMod=1   GUID=22d61b8b-8659-4db5-a715-d5558f1b9b33   Notes="Added 12/21/2024 6:08:46 PM"
   Section=3%confinedconcrete   Material=C30/37   MatAngle=0   AreaType=Shell   Type=Shell-Layered   Thickness=125   BendThick=304.8   Color=Green   F11Mod=1   F22Mod=1   F12Mod=1   M11Mod=1   M22Mod=1   M12Mod=1   V13Mod=1   V23Mod=1 _
        MMod=1   WMod=1   GUID=ef807ef1-4fa9-4a12-87a1-9bee27266e23   Notes="Added 12/21/2024 6:10:45 PM"
 
TABLE:  "AREA SECTION PROPERTY DESIGN PARAMETERS"
   Section=.3%unconfined   RebarMat=None   RebarOpt=Default
   Section=.4%unconfined   RebarMat=None   RebarOpt=Default
   Section=3%confinedconcrete   RebarMat=None   RebarOpt=Default
 
TABLE:  "AREA SECTION PROPERTY LAYERS"
   Section=.3%unconfined   LayerName=ConcM   Distance=0   Thickness=125   Type=Membrane   NumIntPts=1   Material=UnconfinedConcrete   MatAngle=0   MatBehave=Directional   S11Opt=Linear   S22Opt=Nonlinear   S12Opt=Linear
   Section=.3%unconfined   LayerName=TopBar2M   Distance=39.4999999165535   Thickness=0.226400003319979   Type=Membrane   NumIntPts=1   Material=AllSteelReinforcemet   MatAngle=90   MatBehave=Directional   S11Opt=Nonlinear   S22Opt=Inactive   S12Opt=Linear
   Section=.3%unconfined   LayerName=BotBar2M   Distance=-39.4999999165535   Thickness=0.226400003319979   Type=Membrane   NumIntPts=1   Material=AllSteelReinforcemet   MatAngle=90   MatBehave=Directional   S11Opt=Nonlinear _
        S22Opt=Inactive   S12Opt=Linear
   Section=.3%unconfined   LayerName=ConcP   Distance=0   Thickness=90   Type=Plate   NumIntPts=2   Material=UnconfinedConcrete   MatAngle=0   MatBehave=Directional   S11Opt=Linear   S22Opt=Linear   S12Opt=Linear
   Section=.4%unconfined   LayerName=ConcM   Distance=0   Thickness=304.8   Type=Membrane   NumIntPts=1   Material=UnconfinedConcrete   MatAngle=0   MatBehave=Directional   S11Opt=Linear   S22Opt=Nonlinear   S12Opt=Linear
   Section=.4%unconfined   LayerName=TopBar2M   Distance=115.57   Thickness=0.656082   Type=Membrane   NumIntPts=1   Material=AllSteelReinforcemet   MatAngle=90   MatBehave=Directional   S11Opt=Nonlinear   S22Opt=Inactive   S12Opt=Linear
   Section=.4%unconfined   LayerName=BotBar2M   Distance=-115.57   Thickness=0.656082   Type=Membrane   NumIntPts=1   Material=AllSteelReinforcemet   MatAngle=90   MatBehave=Directional   S11Opt=Nonlinear   S22Opt=Inactive   S12Opt=Linear
   Section=.4%unconfined   LayerName=ConcP   Distance=0   Thickness=190.5   Type=Plate   NumIntPts=2   Material=UnconfinedConcrete   MatAngle=0   MatBehave=Directional   S11Opt=Linear   S22Opt=Linear   S12Opt=Linear
   Section=3%confinedconcrete   LayerName=ConcM   Distance=0   Thickness=125   Type=Membrane   NumIntPts=1   Material=ConfinedConcrete   MatAngle=0   MatBehave=Directional   S11Opt=Linear   S22Opt=Nonlinear   S12Opt=Linear
   Section=3%confinedconcrete   LayerName=TopBar2M   Distance=37.5000001132488   Thickness=0.62800001090765   Type=Membrane   NumIntPts=1   Material=AllSteelReinforcemet   MatAngle=90   MatBehave=Directional   S11Opt=Nonlinear _
        S22Opt=Inactive   S12Opt=Linear
   Section=3%confinedconcrete   LayerName=BotBar2M   Distance=-37.5000001132488   Thickness=0.62800001090765   Type=Membrane   NumIntPts=1   Material=AllSteelReinforcemet   MatAngle=90   MatBehave=Directional   S11Opt=Nonlinear _
        S22Opt=Inactive   S12Opt=Linear
   Section=3%confinedconcrete   LayerName=ConcP   Distance=0   Thickness=90   Type=Plate   NumIntPts=2   Material=ConfinedConcrete   MatAngle=0   MatBehave=Directional   S11Opt=Linear   S22Opt=Linear   S12Opt=Linear
 
TABLE:  "AREA SECTION PROPERTY - TIME DEPENDENT"
   Section=.3%unconfined   TypeSize=Auto   AutoSFSize=1
   Section=.4%unconfined   TypeSize=Auto   AutoSFSize=1
   Section=3%confinedconcrete   TypeSize=Auto   AutoSFSize=1
 
TABLE:  "SOLID PROPERTY DEFINITIONS"
   SolidProp=Solid1   Material=C30/37   MatAngleA=0   MatAngleB=0   MatAngleC=0   InComp=Yes   Color=Red   GUID=6fa8da44-21f4-42d2-a162-5ab322f7b1f3   TotalWt=0   TotalMass=0
 
TABLE:  "REBAR SIZES"
   RebarID=#2   Area=32.258   Diameter=6.35
   RebarID=#3   Area=70.9675996154547   Diameter=9.525
   RebarID=#4   Area=129.032001922727   Diameter=12.7
   RebarID=#5   Area=199.999601538181   Diameter=15.875
   RebarID=#6   Area=283.870398461819   Diameter=19.05
   RebarID=#7   Area=387.096015381813   Diameter=22.225
   RebarID=#8   Area=509.676413843632   Diameter=25.4
   RebarID=#9   Area=645.16   Diameter=28.6512005329132
   RebarID=#10   Area=819.35318769455   Diameter=32.2579995155334
   RebarID=#11   Area=1006.44956308365   Diameter=35.8139991521835
   RebarID=#14   Area=1451.61   Diameter=43.0021989583969
   RebarID=#18   Area=2580.64   Diameter=57.3277992248535
   RebarID=10M   Area=100.000002655387   Diameter=11.300000667572
   RebarID=15M   Area=200.000005310774   Diameter=15.9999999403954
   RebarID=20M   Area=300.000017579794   Diameter=19.4999997854233
   RebarID=25M   Area=500.000022890568   Diameter=25.2000016093254
   RebarID=30M   Area=700.000008974075   Diameter=29.9000008821487
   RebarID=35M   Area=1000.00004578114   Diameter=35.7000011444092
   RebarID=45M   Area=1500.00010712624   Diameter=43.7000003576279
   RebarID=55M   Area=2500.00007599831   Diameter=56.4000033855438
   RebarID=6d   Area=28.3000004149973   Diameter=6.00000016689301
   RebarID=8d   Area=50.2999995571375   Diameter=7.99999997019768
   RebarID=10d   Area=78.5000013634562   Diameter=9.99999977350235
   RebarID=12d   Area=113.000009249449   Diameter=12.000000333786
   RebarID=14d   Area=154.000010818839   Diameter=14.0000008940697
   RebarID=16d   Area=201.000015431643   Diameter=15.9999999403954
   RebarID=20d   Area=314.000005453825   Diameter=19.9999995470047
   RebarID=25d   Area=491.000008711815   Diameter=25.0000001907349
   RebarID=26d   Area=531.000029001236   Diameter=25.9999997138977
   RebarID=28d   Area=616.000043275356   Diameter=28.0000017881393
   RebarID=N12   Area=113.000009249449   Diameter=12.000000333786
   RebarID=N16   Area=201.000015431643   Diameter=15.9999999403954
   RebarID=N20   Area=314.000005453825   Diameter=19.9999995470047
   RebarID=N24   Area=452.000036997795   Diameter=24.000000667572
   RebarID=N28   Area=616.000043275356   Diameter=28.0000017881393
   RebarID=N32   Area=804.00006172657   Diameter=31.9999998807907
   RebarID=N36   Area=1020.00001747131   Diameter=36.000001001358
 
TABLE:  "LOAD PATTERN DEFINITIONS"
   LoadPat=DEAD   DesignType=Dead   SelfWtMult=1   GUID=b86a3d14-595e-4c1a-99d4-73ef634022ec
   LoadPat=LIVE   DesignType=Dead   SelfWtMult=0   GUID=4deb1a82-e640-416e-b93c-5dca0723a2a9   Notes="Added 12/21/2024 6:54:08 PM"
 
TABLE:  "AUTO WAVE 3 - WAVE CHARACTERISTICS - GENERAL"
   WaveChar=Default   WaveType="From Theory"   KinFactor=1   SWaterDepth=45000   WaveHeight=18000   WavePeriod=12   WaveTheory=Linear
 
TABLE:  "FUNCTION - RESPONSE SPECTRUM - USER"
   Name=UNIFRS   Period=0   Accel=1   FuncDamp=0.05
   Name=UNIFRS   Period=1   Accel=1
 
TABLE:  "FUNCTION - TIME HISTORY - FROM FILE"
   Name=LACC0   Time=0   Value=0.778   HeaderLines=2   PrefixChars=0   PtsPerLine=8   DataType="Equal Interval"   FormatType=Free   Interval=0.02   FileName="c:\program files\computers and structures\sap2000 25\time history functions\lacc_nor-1.th"
   Name=LACC0   Time=0.02   Value=-0.246
   Name=LACC0   Time=0.04   Value=0.164
   Name=LACC0   Time=0.06   Value=0.61
   Name=LACC0   Time=0.08   Value=0.621
   Name=LACC0   Time=0.1   Value=1.785
   Name=LACC0   Time=0.12   Value=1.89
   Name=LACC0   Time=0.14   Value=1.367
   Name=LACC0   Time=0.16   Value=1.687
   Name=LACC0   Time=0.18   Value=1.796
   Name=LACC0   Time=0.2   Value=0.394
   Name=LACC0   Time=0.22   Value=-0.143
   Name=LACC0   Time=0.24   Value=-0.147
   Name=LACC0   Time=0.26   Value=-0.204
   Name=LACC0   Time=0.28   Value=0.943
   Name=LACC0   Time=0.3   Value=1.592
   Name=LACC0   Time=0.32   Value=1.835
   Name=LACC0   Time=0.34   Value=0.315
   Name=LACC0   Time=0.36   Value=-2.728
   Name=LACC0   Time=0.38   Value=-1.498
   Name=LACC0   Time=0.4   Value=0.292
# ... 2979 like lines cut
 
TABLE:  "FUNCTION - TIME HISTORY - USER"
   Name=RAMPTH   Time=0   Value=0
   Name=RAMPTH   Time=1   Value=1
   Name=RAMPTH   Time=4   Value=1
   Name=UNIFTH   Time=0   Value=1
   Name=UNIFTH   Time=1   Value=1
 
TABLE:  "FUNCTION - POWER SPECTRAL DENSITY - USER"
   Name=UNIFPSD   Frequency=0   Value=1
   Name=UNIFPSD   Frequency=1   Value=1
 
TABLE:  "FUNCTION - STEADY STATE - USER"
   Name=UNIFSS   Frequency=0   Value=1
   Name=UNIFSS   Frequency=1   Value=1
 
TABLE:  "CONSTRAINT DEFINITIONS - DIAPHRAGM"
   Name=DIAPH1_9.   CoordSys=GLOBAL   Axis=Z   MultiLevel=No
   Name=DIAPH1_18.   CoordSys=GLOBAL   Axis=Z   MultiLevel=No
   Name=DIAPH1_27.   CoordSys=GLOBAL   Axis=Z   MultiLevel=No
   Name=DIAPH1_36.   CoordSys=GLOBAL   Axis=Z   MultiLevel=No
   Name=DIAPH1_45.   CoordSys=GLOBAL   Axis=Z   MultiLevel=No
   Name=DIAPH1_54.   CoordSys=GLOBAL   Axis=Z   MultiLevel=No
   Name=DIAPH1_63.   CoordSys=GLOBAL   Axis=Z   MultiLevel=No
   Name=DIAPH1_72.   CoordSys=GLOBAL   Axis=Z   MultiLevel=No
   Name=DIAPH1_81.   CoordSys=GLOBAL   Axis=Z   MultiLevel=No
   Name=DIAPH1_90.   CoordSys=GLOBAL   Axis=Z   MultiLevel=No
   Name=DIAPH1_2000.   CoordSys=GLOBAL   Axis=Z   MultiLevel=No
 
TABLE:  "GROUPS 1 - DEFINITIONS"
   GroupName=All   Selection=Yes   SectionCut=Yes   Steel=Yes   Concrete=Yes   Aluminum=Yes   ColdFormed=Yes   Stage=Yes   Bridge=Yes   AutoSeismic=No   AutoWind=No   SelDesSteel=No   SelDesAlum=No   SelDesCold=No   MassWeight=Yes   Color=Red
   GroupName="1st Story"   Selection=Yes   SectionCut=Yes   Steel=Yes   Concrete=Yes   Aluminum=Yes   ColdFormed=Yes   Stage=Yes   Bridge=Yes   AutoSeismic=No   AutoWind=No   SelDesSteel=No   SelDesAlum=No   SelDesCold=No   MassWeight=Yes   Color=Green
 
TABLE:  "GROUPS 2 - ASSIGNMENTS"
 
TABLE:  "SECTION CUTS 1 - GENERAL"
   CutName=SCUT1   DefinedBy=Group   Group="1st Story"   ResultType=Analysis   DefaultLoc=Yes   GlobalX=0   GlobalY=0   GlobalZ=0   AngleA=0   AngleB=0   AngleC=0   AdvanceAxes=No
 
TABLE:  "JOINT PATTERN DEFINITIONS"
   Pattern=Default
 
TABLE:  "MASS SOURCE"
   MassSource=MSSSRC1   Elements=No   Masses=No   Loads=Yes   IsDefault=Yes   LoadPat=DEAD   Multiplier=1
 
TABLE:  "FUNCTION - PLOT FUNCTIONS"
   PlotFunc="Input Energy"   Type=Energy   Component=Input   Mode=All
   PlotFunc=SCUT1   Type=SectionCut   ObjectLabel=SCUT1   Component=M2   Mode=All
   PlotFunc=Joint20   Type=Joint   ObjectLabel=20   Component=RelDispU1   Mode=All
 
TABLE:  "PUSHOVER PARAMETERS - FORCE DISPLACEMENT"
   ParamName=VDPO1   CapColor=Green
 
TABLE:  "PUSHOVER PARAMETERS - AXIS DATA"
   PlotType=Force-Displ   ParamName=VDPO1   DisplMin=0   DisplMax=0   ForceMin=0   ForceMax=0   HorizLabel=Displacement   VertLabel="Base Reaction"
 
TABLE:  "LOAD CASE DEFINITIONS"
   Case=DEAD   Type=LinStatic   InitialCond=Zero   DesTypeOpt="Prog Det"   DesignType=Dead   DesActOpt="Prog Det"   DesignAct=Non-Composite   AutoType=None   RunCase=Yes   CaseStatus="Not Run"   GUID=3b0f8c56-b286-4a92-9b60-8f681135f159
   Case=MODAL   Type=LinModal   InitialCond=Zero   DesTypeOpt="Prog Det"   DesignType=Other   DesActOpt="Prog Det"   DesignAct=Other   AutoType=None   RunCase=Yes   CaseStatus="Not Run"   GUID=b3c2eda3-1186-42dd-b922-73f5b35d8ebe
   Case=LVE   Type=LinStatic   InitialCond=Zero   DesTypeOpt="Prog Det"   DesignType=Dead   DesActOpt="Prog Det"   DesignAct=Non-Composite   AutoType=None   RunCase=No   CaseStatus="Not Run"   GUID=8b76af94-265d-40f2-8df7-c72d3a76a52c
   Case=GravNL   Type=NonStatic   InitialCond=Zero   DesTypeOpt="Prog Det"   DesignType=Dead   DesActOpt="Prog Det"   DesignAct=Non-Composite   AutoType=None   RunCase=Yes   CaseStatus="Not Run"   GUID=eade7599-dee1-4448-912f-96ee5c2dfb50
   Case=PushX   Type=NonStatic   InitialCond=GravNL   DesTypeOpt="Prog Det"   DesignType=Quake   DesActOpt="Prog Det"   DesignAct="Short-Term Composite"   AutoType=None   RunCase=Yes   CaseStatus="Not Run"   GUID=e71b7b35-266d-4726-a788-675f79e57479
   Case=LACC0   Type=NonModHist   InitialCond=Zero   ModalCase=MODAL   DesTypeOpt="Prog Det"   DesignType=Quake   DesActOpt="Prog Det"   DesignAct="Short-Term Composite"   AutoType=None   RunCase=Yes   CaseStatus="Not Run"   GUID=4a6e4488-d309-4308-b1d1-d9532f53a489
   Case=LACC0-0.3   Type=NonModHist   InitialCond=Zero   ModalCase=MODAL   DesTypeOpt="Prog Det"   DesignType=Quake   DesActOpt="Prog Det"   DesignAct="Short-Term Composite"   AutoType=None   RunCase=Yes   CaseStatus="Not Run"   GUID=4a6e4488-d309-4308-b1d1-d9532f53a489
   Case=LACC0-0.5   Type=NonModHist   InitialCond=Zero   ModalCase=MODAL   DesTypeOpt="Prog Det"   DesignType=Quake   DesActOpt="Prog Det"   DesignAct="Short-Term Composite"   AutoType=None   RunCase=Yes   CaseStatus="Not Run"   GUID=4a6e4488-d309-4308-b1d1-d9532f53a489
   Case=LACC0-0.7   Type=NonModHist   InitialCond=Zero   ModalCase=MODAL   DesTypeOpt="Prog Det"   DesignType=Quake   DesActOpt="Prog Det"   DesignAct="Short-Term Composite"   AutoType=None   RunCase=Yes   CaseStatus="Not Run"   GUID=4a6e4488-d309-4308-b1d1-d9532f53a489
   Case=LACC0-1.2   Type=NonModHist   InitialCond=Zero   ModalCase=MODAL   DesTypeOpt="Prog Det"   DesignType=Quake   DesActOpt="Prog Det"   DesignAct="Short-Term Composite"   AutoType=None   RunCase=Yes   CaseStatus="Not Run"   GUID=4a6e4488-d309-4308-b1d1-d9532f53a489
   Case=LACC0-1.5   Type=NonModHist   InitialCond=Zero   ModalCase=MODAL   DesTypeOpt="Prog Det"   DesignType=Quake   DesActOpt="Prog Det"   DesignAct="Short-Term Composite"   AutoType=None   RunCase=Yes   CaseStatus="Not Run"   GUID=4a6e4488-d309-4308-b1d1-d9532f53a489
   Case=LACC0-1.7   Type=NonModHist   InitialCond=Zero   ModalCase=MODAL   DesTypeOpt="Prog Det"   DesignType=Quake   DesActOpt="Prog Det"   DesignAct="Short-Term Composite"   AutoType=None   RunCase=Yes   CaseStatus="Not Run"   GUID=4a6e4488-d309-4308-b1d1-d9532f53a489
   Case=LACC0_2   Type=NonModHist   InitialCond=Zero   ModalCase=MODAL   DesTypeOpt="Prog Det"   DesignType=Quake   DesActOpt="Prog Det"   DesignAct="Short-Term Composite"   AutoType=None   RunCase=Yes   CaseStatus="Not Run"   GUID=4a6e4488-d309-4308-b1d1-d9532f53a489
   Case=LACC0-2.3   Type=NonModHist   InitialCond=Zero   ModalCase=MODAL   DesTypeOpt="Prog Det"   DesignType=Quake   DesActOpt="Prog Det"   DesignAct="Short-Term Composite"   AutoType=None   RunCase=Yes   CaseStatus="Not Run"   GUID=4a6e4488-d309-4308-b1d1-d9532f53a489
   Case=LACC0-2.5   Type=NonModHist   InitialCond=Zero   ModalCase=MODAL   DesTypeOpt="Prog Det"   DesignType=Quake   DesActOpt="Prog Det"   DesignAct="Short-Term Composite"   AutoType=None   RunCase=Yes   CaseStatus="Not Run"   GUID=4a6e4488-d309-4308-b1d1-d9532f53a489
 
TABLE:  "CASE - STATIC 1 - LOAD ASSIGNMENTS"
   Case=DEAD   LoadType="Load pattern"   LoadName=DEAD   LoadSF=1
   Case=LVE   LoadType="Load pattern"   LoadName=LIVE   LoadSF=1
   Case=GravNL   LoadType="Load pattern"   LoadName=DEAD   LoadSF=1
   Case=GravNL   LoadType="Load pattern"   LoadName=LIVE   LoadSF=0.25
   Case=PushX   LoadType=Accel   LoadName="Accel UX"   TransAccSF=-1
 
TABLE:  "CASE - STATIC 2 - NONLINEAR LOAD APPLICATION"
   Case=GravNL   LoadApp="Full Load"   MonitorDOF=U1   MonitorJt=13
   Case=PushX   LoadApp="Displ Ctrl"   DisplType=Monitored   TargetDispl=1097.28   MonitorDOF=U1   MonitorJt=13
 
TABLE:  "CASE - STATIC 4 - NONLINEAR PARAMETERS"
   Case=GravNL   GeoNonLin=None   ResultsSave="Final State"   SolScheme="Iterative Events"   MaxTotal=200   MaxNull=50   EvLumpTol=0.01   MaxEvPerStp=24   MaxIterCS=10   MaxIterNR=40   ItConvTol=0.0001   TFMaxIter=10   TFTol=0.01 _
        TFAccelFact=1   TFNoStop=No
   Case=PushX   GeoNonLin=None   ResultsSave="Multiple States"   MinNumState=10   MaxNumState=100   PosIncOnly=Yes   SolScheme="Iterative Events"   MaxTotal=200   MaxNull=50   EvLumpTol=0.01   MaxEvPerStp=24   MaxIterCS=10   MaxIterNR=40 _
        ItConvTol=0.0001   TFMaxIter=10   TFTol=0.01   TFAccelFact=1   TFNoStop=No
 
TABLE:  "CASE - MODAL 1 - GENERAL"
   Case=MODAL   ModeType=Eigen   MaxNumModes=12   MinNumModes=1   EigenShift=0   EigenCutoff=0   EigenTol=1E-09   AutoShift=Yes
 
TABLE:  "CASE - MODAL HISTORY 1 - GENERAL"
   Case=LACC0   HistoryType=Transient   OutSteps=3000   StepSize=0.02   DampingType=Constant   ConstDamp=0.05
   Case=LACC0-0.3   HistoryType=Transient   OutSteps=3000   StepSize=0.02   DampingType=Constant   ConstDamp=0.05
   Case=LACC0-0.5   HistoryType=Transient   OutSteps=3000   StepSize=0.02   DampingType=Constant   ConstDamp=0.05
   Case=LACC0-0.7   HistoryType=Transient   OutSteps=3000   StepSize=0.02   DampingType=Constant   ConstDamp=0.05
   Case=LACC0-1.2   HistoryType=Transient   OutSteps=3000   StepSize=0.02   DampingType=Constant   ConstDamp=0.05
   Case=LACC0-1.5   HistoryType=Transient   OutSteps=3000   StepSize=0.02   DampingType=Constant   ConstDamp=0.05
   Case=LACC0-1.7   HistoryType=Transient   OutSteps=3000   StepSize=0.02   DampingType=Constant   ConstDamp=0.05
   Case=LACC0_2   HistoryType=Transient   OutSteps=3000   StepSize=0.02   DampingType=Constant   ConstDamp=0.05
   Case=LACC0-2.3   HistoryType=Transient   OutSteps=3000   StepSize=0.02   DampingType=Constant   ConstDamp=0.05
   Case=LACC0-2.5   HistoryType=Transient   OutSteps=3000   StepSize=0.02   DampingType=Constant   ConstDamp=0.05
 
TABLE:  "CASE - MODAL HISTORY 2 - LOAD ASSIGNMENTS"
   Case=LACC0   LoadType=Accel   LoadName="Accel U1"   Function=LACC0   TransAccSF=392   TimeFactor=1   ArrivalTime=0   CoordSys=GLOBAL   Angle=0
   Case=LACC0-0.3   LoadType=Accel   LoadName="Accel U1"   Function=LACC0   TransAccSF=117.6   TimeFactor=1   ArrivalTime=0   CoordSys=GLOBAL   Angle=0
   Case=LACC0-0.5   LoadType=Accel   LoadName="Accel U1"   Function=LACC0   TransAccSF=196   TimeFactor=1   ArrivalTime=0   CoordSys=GLOBAL   Angle=0
   Case=LACC0-0.7   LoadType=Accel   LoadName="Accel U1"   Function=LACC0   TransAccSF=274.4   TimeFactor=1   ArrivalTime=0   CoordSys=GLOBAL   Angle=0
   Case=LACC0-1.2   LoadType=Accel   LoadName="Accel U1"   Function=LACC0   TransAccSF=470.4   TimeFactor=1   ArrivalTime=0   CoordSys=GLOBAL   Angle=0
   Case=LACC0-1.5   LoadType=Accel   LoadName="Accel U1"   Function=LACC0   TransAccSF=588   TimeFactor=1   ArrivalTime=0   CoordSys=GLOBAL   Angle=0
   Case=LACC0-1.7   LoadType=Accel   LoadName="Accel U1"   Function=LACC0   TransAccSF=666.4   TimeFactor=1   ArrivalTime=0   CoordSys=GLOBAL   Angle=0
   Case=LACC0_2   LoadType=Accel   LoadName="Accel U1"   Function=LACC0   TransAccSF=784   TimeFactor=1   ArrivalTime=0   CoordSys=GLOBAL   Angle=0
   Case=LACC0-2.3   LoadType=Accel   LoadName="Accel U1"   Function=LACC0   TransAccSF=901.6   TimeFactor=1   ArrivalTime=0   CoordSys=GLOBAL   Angle=0
   Case=LACC0-2.5   LoadType=Accel   LoadName="Accel U1"   Function=LACC0   TransAccSF=980   TimeFactor=1   ArrivalTime=0   CoordSys=GLOBAL   Angle=0
 
TABLE:  "CASE - MODAL HISTORY 6 - NONLINEAR PARAMETERS"
   Case=LACC0   PeriodStat=0   DTMax=0   DTMin=0   FConvTol=1E-05   EConvTol=1E-05   ForceItMax=100   ForceItMin=2   ConvFactor=1
   Case=LACC0-0.3   PeriodStat=0   DTMax=0   DTMin=0   FConvTol=1E-05   EConvTol=1E-05   ForceItMax=100   ForceItMin=2   ConvFactor=1
   Case=LACC0-0.5   PeriodStat=0   DTMax=0   DTMin=0   FConvTol=1E-05   EConvTol=1E-05   ForceItMax=100   ForceItMin=2   ConvFactor=1
   Case=LACC0-0.7   PeriodStat=0   DTMax=0   DTMin=0   FConvTol=1E-05   EConvTol=1E-05   ForceItMax=100   ForceItMin=2   ConvFactor=1
   Case=LACC0-1.2   PeriodStat=0   DTMax=0   DTMin=0   FConvTol=1E-05   EConvTol=1E-05   ForceItMax=100   ForceItMin=2   ConvFactor=1
   Case=LACC0-1.5   PeriodStat=0   DTMax=0   DTMin=0   FConvTol=1E-05   EConvTol=1E-05   ForceItMax=100   ForceItMin=2   ConvFactor=1
   Case=LACC0-1.7   PeriodStat=0   DTMax=0   DTMin=0   FConvTol=1E-05   EConvTol=1E-05   ForceItMax=100   ForceItMin=2   ConvFactor=1
   Case=LACC0_2   PeriodStat=0   DTMax=0   DTMin=0   FConvTol=1E-05   EConvTol=1E-05   ForceItMax=100   ForceItMin=2   ConvFactor=1
   Case=LACC0-2.3   PeriodStat=0   DTMax=0   DTMin=0   FConvTol=1E-05   EConvTol=1E-05   ForceItMax=100   ForceItMin=2   ConvFactor=1
   Case=LACC0-2.5   PeriodStat=0   DTMax=0   DTMin=0   FConvTol=1E-05   EConvTol=1E-05   ForceItMax=100   ForceItMin=2   ConvFactor=1
 
TABLE:  "JOINT COORDINATES"
   Joint=1   CoordSys=GLOBAL   CoordType=Cartesian   XorR=0   Y=0   Z=0   SpecialJt=No   GlobalX=0   GlobalY=0   GlobalZ=0   GUID=2c111779-fa0f-4bed-a9b7-2b9637f414d1
   Joint=2   CoordSys=GLOBAL   CoordType=Cartesian   XorR=200   Y=0   Z=0   SpecialJt=No   GlobalX=200   GlobalY=0   GlobalZ=0   GUID=92a7d7a0-602a-48d3-b877-b3a00094aed0
   Joint=3   CoordSys=GLOBAL   CoordType=Cartesian   XorR=200   Y=0   Z=2000   SpecialJt=No   GlobalX=200   GlobalY=0   GlobalZ=2000   GUID=417c4ecd-866e-47ec-8a91-edf411a5ea98
   Joint=4   CoordSys=GLOBAL   CoordType=Cartesian   XorR=0   Y=0   Z=2000   SpecialJt=No   GlobalX=0   GlobalY=0   GlobalZ=2000   GUID=39592db6-2163-41d8-a1f7-6f8ba049e275
   Joint=5   CoordSys=GLOBAL   CoordType=Cartesian   XorR=800   Y=0   Z=0   SpecialJt=No   GlobalX=800   GlobalY=0   GlobalZ=0   GUID=17a1d839-9cd5-4546-9caf-601b0a1121db
   Joint=6   CoordSys=GLOBAL   CoordType=Cartesian   XorR=1000   Y=0   Z=0   SpecialJt=No   GlobalX=1000   GlobalY=0   GlobalZ=0   GUID=0d8dd515-051a-405e-a57a-a20ecb995833
   Joint=7   CoordSys=GLOBAL   CoordType=Cartesian   XorR=1000   Y=0   Z=2000   SpecialJt=No   GlobalX=1000   GlobalY=0   GlobalZ=2000   GUID=af046a69-55a4-4ed4-a8e1-e981d4874fec
   Joint=8   CoordSys=GLOBAL   CoordType=Cartesian   XorR=800   Y=0   Z=2000   SpecialJt=No   GlobalX=800   GlobalY=0   GlobalZ=2000   GUID=fa5c570d-e3a4-4946-8b56-a13697725b11
   Joint=13   CoordSys=GLOBAL   CoordType=Cartesian   XorR=800   Y=0   Z=4000   SpecialJt=No   GlobalX=800   GlobalY=0   GlobalZ=4000   GUID=62cb4c51-a54f-410d-a447-18f2e8983753
   Joint=14   CoordSys=GLOBAL   CoordType=Cartesian   XorR=200   Y=0   Z=4000   SpecialJt=No   GlobalX=200   GlobalY=0   GlobalZ=4000   GUID=da312714-2a46-417e-965d-680ce297caed
   Joint=15   CoordSys=GLOBAL   CoordType=Cartesian   XorR=0   Y=0   Z=4000   SpecialJt=No   GlobalX=0   GlobalY=0   GlobalZ=4000   GUID=c717df88-b5dc-4bac-b978-43000826eecf
   Joint=16   CoordSys=GLOBAL   CoordType=Cartesian   XorR=1000   Y=0   Z=4000   SpecialJt=No   GlobalX=1000   GlobalY=0   GlobalZ=4000   GUID=d94f1a90-fb40-49d0-b0c1-7fc110b10f16
   Joint=19   CoordSys=GLOBAL   CoordType=Cartesian   XorR=500   Y=0   Z=2000   SpecialJt=No   GlobalX=500   GlobalY=0   GlobalZ=2000   GUID=c11f1e17-2c76-4b1f-aec3-832ad6b0dfd4
   Joint=20   CoordSys=GLOBAL   CoordType=Cartesian   XorR=500   Y=0   Z=4000   SpecialJt=No   GlobalX=500   GlobalY=0   GlobalZ=4000   GUID=ad9012a8-ee8d-4c56-9fd6-7bf3cb0e681e
   Joint=21   CoordSys=GLOBAL   CoordType=Cartesian   XorR=500   Y=0   Z=0   SpecialJt=No   GlobalX=500   GlobalY=0   GlobalZ=0   GUID=5cae8cb8-4742-4f28-b74d-893b73381dff
   Joint=22   CoordSys=GLOBAL   CoordType=Cartesian   XorR=100   Y=0   Z=0   SpecialJt=No   GlobalX=100   GlobalY=0   GlobalZ=0   GUID=52571bf2-504f-4df7-b68a-c90cdafcce7e
   Joint=23   CoordSys=GLOBAL   CoordType=Cartesian   XorR=100   Y=0   Z=500   SpecialJt=No   GlobalX=100   GlobalY=0   GlobalZ=500   GUID=932fd265-701f-4aef-98b3-5bfa31b91f68
   Joint=24   CoordSys=GLOBAL   CoordType=Cartesian   XorR=0   Y=0   Z=500   SpecialJt=No   GlobalX=0   GlobalY=0   GlobalZ=500   GUID=c7867e79-b727-4fec-972d-0007794b1ce3
   Joint=25   CoordSys=GLOBAL   CoordType=Cartesian   XorR=100   Y=0   Z=1000   SpecialJt=No   GlobalX=100   GlobalY=0   GlobalZ=1000   GUID=ab8fa13c-c53e-49c9-b9e9-e35fea7c01c3
   Joint=26   CoordSys=GLOBAL   CoordType=Cartesian   XorR=0   Y=0   Z=1000   SpecialJt=No   GlobalX=0   GlobalY=0   GlobalZ=1000   GUID=4c48a97a-e4e3-475f-bed9-0892515a3f62
   Joint=27   CoordSys=GLOBAL   CoordType=Cartesian   XorR=100   Y=0   Z=1500   SpecialJt=No   GlobalX=100   GlobalY=0   GlobalZ=1500   GUID=9138fc80-f5ce-48ab-b11c-270f9976b17d
   Joint=28   CoordSys=GLOBAL   CoordType=Cartesian   XorR=0   Y=0   Z=1500   SpecialJt=No   GlobalX=0   GlobalY=0   GlobalZ=1500   GUID=839d8bff-63d1-4252-8090-54dd198d3a78
   Joint=29   CoordSys=GLOBAL   CoordType=Cartesian   XorR=100   Y=0   Z=2000   SpecialJt=No   GlobalX=100   GlobalY=0   GlobalZ=2000   GUID=356ed7e7-67e9-4612-a5ec-b43e91a878e3
   Joint=30   CoordSys=GLOBAL   CoordType=Cartesian   XorR=200   Y=0   Z=500   SpecialJt=No   GlobalX=200   GlobalY=0   GlobalZ=500   GUID=a74ffeb0-0aca-4a6d-a21c-529379c75ffa
   Joint=31   CoordSys=GLOBAL   CoordType=Cartesian   XorR=200   Y=0   Z=1000   SpecialJt=No   GlobalX=200   GlobalY=0   GlobalZ=1000   GUID=112e21a3-97f9-466c-8648-9276a89811e8
   Joint=32   CoordSys=GLOBAL   CoordType=Cartesian   XorR=200   Y=0   Z=1500   SpecialJt=No   GlobalX=200   GlobalY=0   GlobalZ=1500   GUID=cf7b6f06-6757-4999-899f-97061b5c20b9
   Joint=33   CoordSys=GLOBAL   CoordType=Cartesian   XorR=900   Y=0   Z=0   SpecialJt=No   GlobalX=900   GlobalY=0   GlobalZ=0   GUID=6a75adf2-69c2-4161-9601-1c6d28451008
   Joint=34   CoordSys=GLOBAL   CoordType=Cartesian   XorR=900   Y=0   Z=500   SpecialJt=No   GlobalX=900   GlobalY=0   GlobalZ=500   GUID=6bb24a41-3579-4f39-b05d-ae8f5b2b0028
   Joint=35   CoordSys=GLOBAL   CoordType=Cartesian   XorR=800   Y=0   Z=500   SpecialJt=No   GlobalX=800   GlobalY=0   GlobalZ=500   GUID=65723f46-8748-4d25-915c-e85854d55ce1
   Joint=36   CoordSys=GLOBAL   CoordType=Cartesian   XorR=900   Y=0   Z=1000   SpecialJt=No   GlobalX=900   GlobalY=0   GlobalZ=1000   GUID=cd72f3e9-2db7-46f4-a4e9-6dcecf59700b
   Joint=37   CoordSys=GLOBAL   CoordType=Cartesian   XorR=800   Y=0   Z=1000   SpecialJt=No   GlobalX=800   GlobalY=0   GlobalZ=1000   GUID=546aebe7-e3f8-413b-b91a-1a63d3a555c7
   Joint=38   CoordSys=GLOBAL   CoordType=Cartesian   XorR=900   Y=0   Z=1500   SpecialJt=No   GlobalX=900   GlobalY=0   GlobalZ=1500   GUID=83755795-cd6e-4584-b127-6aeb7daccbdb
   Joint=39   CoordSys=GLOBAL   CoordType=Cartesian   XorR=800   Y=0   Z=1500   SpecialJt=No   GlobalX=800   GlobalY=0   GlobalZ=1500   GUID=7f92c33f-5400-4fdc-af13-f406a09d3adf
   Joint=40   CoordSys=GLOBAL   CoordType=Cartesian   XorR=900   Y=0   Z=2000   SpecialJt=No   GlobalX=900   GlobalY=0   GlobalZ=2000   GUID=09080d05-74a5-46a4-ab9e-a3f3a18a13fa
   Joint=41   CoordSys=GLOBAL   CoordType=Cartesian   XorR=1000   Y=0   Z=500   SpecialJt=No   GlobalX=1000   GlobalY=0   GlobalZ=500   GUID=db0c5e85-98bb-4c01-b0fd-d8ed235c5a4a
   Joint=42   CoordSys=GLOBAL   CoordType=Cartesian   XorR=1000   Y=0   Z=1000   SpecialJt=No   GlobalX=1000   GlobalY=0   GlobalZ=1000   GUID=19ffde6c-eecf-4044-8766-caccc1eba0c7
   Joint=43   CoordSys=GLOBAL   CoordType=Cartesian   XorR=1000   Y=0   Z=1500   SpecialJt=No   GlobalX=1000   GlobalY=0   GlobalZ=1500   GUID=cda99df8-f156-4622-b89e-67001c8ea5ee
   Joint=44   CoordSys=GLOBAL   CoordType=Cartesian   XorR=100   Y=0   Z=2500   SpecialJt=No   GlobalX=100   GlobalY=0   GlobalZ=2500   GUID=b4e0ead9-5b0a-495b-b431-fe4c5a4798e7
   Joint=45   CoordSys=GLOBAL   CoordType=Cartesian   XorR=0   Y=0   Z=2500   SpecialJt=No   GlobalX=0   GlobalY=0   GlobalZ=2500   GUID=42b4e347-73c1-4ba0-914f-deb640e0ccf6
   Joint=46   CoordSys=GLOBAL   CoordType=Cartesian   XorR=100   Y=0   Z=3000   SpecialJt=No   GlobalX=100   GlobalY=0   GlobalZ=3000   GUID=03438057-0ad1-42a3-9c75-2cbe4c7ad8a1
   Joint=47   CoordSys=GLOBAL   CoordType=Cartesian   XorR=0   Y=0   Z=3000   SpecialJt=No   GlobalX=0   GlobalY=0   GlobalZ=3000   GUID=5c5adcc4-91e3-4af1-bd80-275e494e6f88
   Joint=48   CoordSys=GLOBAL   CoordType=Cartesian   XorR=100   Y=0   Z=3500   SpecialJt=No   GlobalX=100   GlobalY=0   GlobalZ=3500   GUID=2cf8cbe1-a7c1-4e3c-955f-829ef3a50ba7
   Joint=49   CoordSys=GLOBAL   CoordType=Cartesian   XorR=0   Y=0   Z=3500   SpecialJt=No   GlobalX=0   GlobalY=0   GlobalZ=3500   GUID=87fd0e3f-336c-4d2a-96ad-543cee3da930
   Joint=50   CoordSys=GLOBAL   CoordType=Cartesian   XorR=100   Y=0   Z=4000   SpecialJt=No   GlobalX=100   GlobalY=0   GlobalZ=4000   GUID=fed80875-7faf-4d32-ba88-f9040faed22e
   Joint=51   CoordSys=GLOBAL   CoordType=Cartesian   XorR=200   Y=0   Z=2500   SpecialJt=No   GlobalX=200   GlobalY=0   GlobalZ=2500   GUID=941b9f80-28df-4a81-8ded-533e947ff110
   Joint=52   CoordSys=GLOBAL   CoordType=Cartesian   XorR=200   Y=0   Z=3000   SpecialJt=No   GlobalX=200   GlobalY=0   GlobalZ=3000   GUID=4d9fccac-b58a-4959-b8b7-445bb4f9a07f
   Joint=53   CoordSys=GLOBAL   CoordType=Cartesian   XorR=200   Y=0   Z=3500   SpecialJt=No   GlobalX=200   GlobalY=0   GlobalZ=3500   GUID=73b7c8a5-8723-4047-901a-f80419c25a40
   Joint=54   CoordSys=GLOBAL   CoordType=Cartesian   XorR=900   Y=0   Z=2500   SpecialJt=No   GlobalX=900   GlobalY=0   GlobalZ=2500   GUID=33b320ea-a3c9-41e0-a051-7d43633d226e
   Joint=55   CoordSys=GLOBAL   CoordType=Cartesian   XorR=800   Y=0   Z=2500   SpecialJt=No   GlobalX=800   GlobalY=0   GlobalZ=2500   GUID=11559505-374f-4d83-9c40-4b8e10708039
   Joint=56   CoordSys=GLOBAL   CoordType=Cartesian   XorR=900   Y=0   Z=3000   SpecialJt=No   GlobalX=900   GlobalY=0   GlobalZ=3000   GUID=f21e17b2-a257-47c7-9009-80b252bd52f3
   Joint=57   CoordSys=GLOBAL   CoordType=Cartesian   XorR=800   Y=0   Z=3000   SpecialJt=No   GlobalX=800   GlobalY=0   GlobalZ=3000   GUID=ff9f0956-abb6-420e-b5fb-e65d8d8004ff
   Joint=58   CoordSys=GLOBAL   CoordType=Cartesian   XorR=900   Y=0   Z=3500   SpecialJt=No   GlobalX=900   GlobalY=0   GlobalZ=3500   GUID=ab52c7d3-28c6-4954-bf35-51fe60f57a4a
   Joint=59   CoordSys=GLOBAL   CoordType=Cartesian   XorR=800   Y=0   Z=3500   SpecialJt=No   GlobalX=800   GlobalY=0   GlobalZ=3500   GUID=ff3bac05-34d6-45ab-9488-c6d15d7d4535
   Joint=60   CoordSys=GLOBAL   CoordType=Cartesian   XorR=900   Y=0   Z=4000   SpecialJt=No   GlobalX=900   GlobalY=0   GlobalZ=4000   GUID=87dcd4f1-23c3-4dd0-9dcf-1b3c6ff157b6
   Joint=61   CoordSys=GLOBAL   CoordType=Cartesian   XorR=1000   Y=0   Z=2500   SpecialJt=No   GlobalX=1000   GlobalY=0   GlobalZ=2500   GUID=76e5ad86-2048-444f-bfa5-efd52ce2967e
   Joint=62   CoordSys=GLOBAL   CoordType=Cartesian   XorR=1000   Y=0   Z=3000   SpecialJt=No   GlobalX=1000   GlobalY=0   GlobalZ=3000   GUID=e809a883-6ff8-4b15-83df-2c49b5737312
   Joint=63   CoordSys=GLOBAL   CoordType=Cartesian   XorR=1000   Y=0   Z=3500   SpecialJt=No   GlobalX=1000   GlobalY=0   GlobalZ=3500   GUID=9ac99ab7-133c-4ac4-80c3-f16c02f6f70e
   Joint=64   CoordSys=GLOBAL   CoordType=Cartesian   XorR=350   Y=0   Z=2000   SpecialJt=No   GlobalX=350   GlobalY=0   GlobalZ=2000   GUID=f2e1c29e-352e-48ec-a443-5cc991703a7e
   Joint=65   CoordSys=GLOBAL   CoordType=Cartesian   XorR=350   Y=0   Z=2500   SpecialJt=No   GlobalX=350   GlobalY=0   GlobalZ=2500   GUID=c9a6e499-50a3-4c0a-a0c9-f07c642a1d76
   Joint=66   CoordSys=GLOBAL   CoordType=Cartesian   XorR=350   Y=0   Z=3000   SpecialJt=No   GlobalX=350   GlobalY=0   GlobalZ=3000   GUID=54ace34e-a648-4bf8-9a64-62645ae47ed5
   Joint=67   CoordSys=GLOBAL   CoordType=Cartesian   XorR=350   Y=0   Z=3500   SpecialJt=No   GlobalX=350   GlobalY=0   GlobalZ=3500   GUID=cf2cce5b-20ee-4472-9409-154b6b1ab7d6
   Joint=68   CoordSys=GLOBAL   CoordType=Cartesian   XorR=350   Y=0   Z=4000   SpecialJt=No   GlobalX=350   GlobalY=0   GlobalZ=4000   GUID=c86d8b26-6b84-4b31-98aa-732777cd1172
   Joint=69   CoordSys=GLOBAL   CoordType=Cartesian   XorR=500   Y=0   Z=2500   SpecialJt=No   GlobalX=500   GlobalY=0   GlobalZ=2500   GUID=b59e1db8-d132-4a18-92fa-679e8c2bab28
   Joint=70   CoordSys=GLOBAL   CoordType=Cartesian   XorR=500   Y=0   Z=3000   SpecialJt=No   GlobalX=500   GlobalY=0   GlobalZ=3000   GUID=4b4a0429-8023-40fd-b620-5d1d5380b754
   Joint=71   CoordSys=GLOBAL   CoordType=Cartesian   XorR=500   Y=0   Z=3500   SpecialJt=No   GlobalX=500   GlobalY=0   GlobalZ=3500   GUID=c6756631-5dca-4282-89e0-13ff480ac46b
   Joint=72   CoordSys=GLOBAL   CoordType=Cartesian   XorR=650   Y=0   Z=2000   SpecialJt=No   GlobalX=650   GlobalY=0   GlobalZ=2000   GUID=003f5a95-66de-4c6a-a9e7-9cf22441fa41
   Joint=73   CoordSys=GLOBAL   CoordType=Cartesian   XorR=650   Y=0   Z=2500   SpecialJt=No   GlobalX=650   GlobalY=0   GlobalZ=2500   GUID=6e1bafa7-3e5a-4f51-97d7-d7cce7825a48
   Joint=74   CoordSys=GLOBAL   CoordType=Cartesian   XorR=650   Y=0   Z=3000   SpecialJt=No   GlobalX=650   GlobalY=0   GlobalZ=3000   GUID=47d93075-f0d0-4445-85ea-c1a6f3a70de4
   Joint=75   CoordSys=GLOBAL   CoordType=Cartesian   XorR=650   Y=0   Z=3500   SpecialJt=No   GlobalX=650   GlobalY=0   GlobalZ=3500   GUID=f896fbe1-ce61-493d-a732-7919ee3ca375
   Joint=76   CoordSys=GLOBAL   CoordType=Cartesian   XorR=650   Y=0   Z=4000   SpecialJt=No   GlobalX=650   GlobalY=0   GlobalZ=4000   GUID=bec45d30-e271-46a0-bb7a-05ee509771cc
   Joint=77   CoordSys=GLOBAL   CoordType=Cartesian   XorR=350   Y=0   Z=0   SpecialJt=No   GlobalX=350   GlobalY=0   GlobalZ=0   GUID=c4509aa1-db3a-4962-8bcc-b903da9a3cda
   Joint=78   CoordSys=GLOBAL   CoordType=Cartesian   XorR=350   Y=0   Z=500   SpecialJt=No   GlobalX=350   GlobalY=0   GlobalZ=500   GUID=4f2a98dc-098d-4306-9dd8-d8c33137baa1
   Joint=79   CoordSys=GLOBAL   CoordType=Cartesian   XorR=350   Y=0   Z=1000   SpecialJt=No   GlobalX=350   GlobalY=0   GlobalZ=1000   GUID=e68a4dfd-ebac-4393-a805-69c067413455
   Joint=80   CoordSys=GLOBAL   CoordType=Cartesian   XorR=350   Y=0   Z=1500   SpecialJt=No   GlobalX=350   GlobalY=0   GlobalZ=1500   GUID=8559f98d-84ea-4104-b37d-bd230b7fce63
   Joint=81   CoordSys=GLOBAL   CoordType=Cartesian   XorR=500   Y=0   Z=500   SpecialJt=No   GlobalX=500   GlobalY=0   GlobalZ=500   GUID=caaab15e-625f-433b-9f0c-4afc416383fa
   Joint=82   CoordSys=GLOBAL   CoordType=Cartesian   XorR=500   Y=0   Z=1000   SpecialJt=No   GlobalX=500   GlobalY=0   GlobalZ=1000   GUID=49f3a561-afaf-405d-bfe3-267ac6061154
   Joint=83   CoordSys=GLOBAL   CoordType=Cartesian   XorR=500   Y=0   Z=1500   SpecialJt=No   GlobalX=500   GlobalY=0   GlobalZ=1500   GUID=d3e36d57-26f3-41d2-a98d-4e7b82bf5947
   Joint=84   CoordSys=GLOBAL   CoordType=Cartesian   XorR=650   Y=0   Z=0   SpecialJt=No   GlobalX=650   GlobalY=0   GlobalZ=0   GUID=fd583811-ddd2-4567-8762-81dfe9afe682
   Joint=85   CoordSys=GLOBAL   CoordType=Cartesian   XorR=650   Y=0   Z=500   SpecialJt=No   GlobalX=650   GlobalY=0   GlobalZ=500   GUID=7d1cfc88-b712-4a6b-bade-2ac6a4b70404
   Joint=86   CoordSys=GLOBAL   CoordType=Cartesian   XorR=650   Y=0   Z=1000   SpecialJt=No   GlobalX=650   GlobalY=0   GlobalZ=1000   GUID=d2737210-39a0-4cdc-9696-35821635f9da
   Joint=87   CoordSys=GLOBAL   CoordType=Cartesian   XorR=650   Y=0   Z=1500   SpecialJt=No   GlobalX=650   GlobalY=0   GlobalZ=1500   GUID=8d0a72cf-f249-444c-a231-4ee009bbe308
 
TABLE:  "CONNECTIVITY - AREA"
   Area=16   NumJoints=4   Joint1=1   Joint2=22   Joint3=23   Joint4=24   Perimeter=1200   AreaArea=50000   CentroidX=50   CentroidY=0   CentroidZ=250   GUID=13e66912-c39b-4546-bedc-ee1df3879b94
   Area=17   NumJoints=4   Joint1=24   Joint2=23   Joint3=25   Joint4=26   Perimeter=1200   AreaArea=50000   CentroidX=50   CentroidY=0   CentroidZ=750   GUID=0664daf3-4677-4f02-94fd-055d80887002
   Area=18   NumJoints=4   Joint1=26   Joint2=25   Joint3=27   Joint4=28   Perimeter=1200   AreaArea=50000   CentroidX=50   CentroidY=0   CentroidZ=1250   GUID=d2b71414-b158-4bd4-98f0-11d2e36ba954
   Area=19   NumJoints=4   Joint1=28   Joint2=27   Joint3=29   Joint4=4   Perimeter=1200   AreaArea=50000   CentroidX=50   CentroidY=0   CentroidZ=1750   GUID=217fec75-6e33-4d39-8a04-b309f9931a79
   Area=20   NumJoints=4   Joint1=22   Joint2=2   Joint3=30   Joint4=23   Perimeter=1200   AreaArea=50000   CentroidX=150   CentroidY=0   CentroidZ=250   GUID=d8898a50-9cfc-40c5-bcf6-b69f9a00235a
   Area=21   NumJoints=4   Joint1=23   Joint2=30   Joint3=31   Joint4=25   Perimeter=1200   AreaArea=50000   CentroidX=150   CentroidY=0   CentroidZ=750   GUID=a8d0aff9-cffc-466e-9068-40c03fe65f30
   Area=22   NumJoints=4   Joint1=25   Joint2=31   Joint3=32   Joint4=27   Perimeter=1200   AreaArea=50000   CentroidX=150   CentroidY=0   CentroidZ=1250   GUID=65fe65b9-860e-49d2-be23-d583dfae9881
   Area=23   NumJoints=4   Joint1=27   Joint2=32   Joint3=3   Joint4=29   Perimeter=1200   AreaArea=50000   CentroidX=150   CentroidY=0   CentroidZ=1750   GUID=9eae47b7-f9a8-45bb-9a67-edcdfc176a40
   Area=24   NumJoints=4   Joint1=5   Joint2=33   Joint3=34   Joint4=35   Perimeter=1200   AreaArea=50000   CentroidX=850   CentroidY=0   CentroidZ=250   GUID=3b7ce0d7-14a9-4a02-a351-b523749036f5
   Area=25   NumJoints=4   Joint1=35   Joint2=34   Joint3=36   Joint4=37   Perimeter=1200   AreaArea=50000   CentroidX=850   CentroidY=0   CentroidZ=750   GUID=c6808f61-74b1-491b-9b0a-7580a36fdc60
   Area=26   NumJoints=4   Joint1=37   Joint2=36   Joint3=38   Joint4=39   Perimeter=1200   AreaArea=50000   CentroidX=850   CentroidY=0   CentroidZ=1250   GUID=3a40822b-b817-4ae5-95ed-968c49cc92cc
   Area=27   NumJoints=4   Joint1=39   Joint2=38   Joint3=40   Joint4=8   Perimeter=1200   AreaArea=50000   CentroidX=850   CentroidY=0   CentroidZ=1750   GUID=44167c8e-1000-4c73-a4f4-fe7d3190fcf9
   Area=28   NumJoints=4   Joint1=33   Joint2=6   Joint3=41   Joint4=34   Perimeter=1200   AreaArea=50000   CentroidX=950   CentroidY=0   CentroidZ=250   GUID=93b7072d-bc61-47e5-8e22-795a88de73a4
   Area=29   NumJoints=4   Joint1=34   Joint2=41   Joint3=42   Joint4=36   Perimeter=1200   AreaArea=50000   CentroidX=950   CentroidY=0   CentroidZ=750   GUID=76fa3255-0bf6-4d3d-96ae-9b563679bb1f
   Area=30   NumJoints=4   Joint1=36   Joint2=42   Joint3=43   Joint4=38   Perimeter=1200   AreaArea=50000   CentroidX=950   CentroidY=0   CentroidZ=1250   GUID=4b893a18-d2ee-48b7-ba24-a57d938f50e7
   Area=31   NumJoints=4   Joint1=38   Joint2=43   Joint3=7   Joint4=40   Perimeter=1200   AreaArea=50000   CentroidX=950   CentroidY=0   CentroidZ=1750   GUID=5eed5e9f-438c-41dd-9e17-5c08aae90c4c
   Area=32   NumJoints=4   Joint1=4   Joint2=29   Joint3=44   Joint4=45   Perimeter=1200   AreaArea=50000   CentroidX=50   CentroidY=0   CentroidZ=2250   GUID=83ac1994-93b0-4934-b05f-ef998d684c45
   Area=33   NumJoints=4   Joint1=45   Joint2=44   Joint3=46   Joint4=47   Perimeter=1200   AreaArea=50000   CentroidX=50   CentroidY=0   CentroidZ=2750   GUID=79b3a74e-8fc2-4680-9333-5c9e7e4a5e7e
   Area=34   NumJoints=4   Joint1=47   Joint2=46   Joint3=48   Joint4=49   Perimeter=1200   AreaArea=50000   CentroidX=50   CentroidY=0   CentroidZ=3250   GUID=be6edd14-732b-4217-bc24-ac2e3add82d7
   Area=35   NumJoints=4   Joint1=49   Joint2=48   Joint3=50   Joint4=15   Perimeter=1200   AreaArea=50000   CentroidX=50   CentroidY=0   CentroidZ=3750   GUID=be435005-bba6-4c0b-ac6a-3c5612922054
   Area=36   NumJoints=4   Joint1=29   Joint2=3   Joint3=51   Joint4=44   Perimeter=1200   AreaArea=50000   CentroidX=150   CentroidY=0   CentroidZ=2250   GUID=7a266cf2-96df-4c8e-acb2-a2c052d91d62
   Area=37   NumJoints=4   Joint1=44   Joint2=51   Joint3=52   Joint4=46   Perimeter=1200   AreaArea=50000   CentroidX=150   CentroidY=0   CentroidZ=2750   GUID=e1c87dd0-b5eb-4b19-be02-e5d97993d484
   Area=38   NumJoints=4   Joint1=46   Joint2=52   Joint3=53   Joint4=48   Perimeter=1200   AreaArea=50000   CentroidX=150   CentroidY=0   CentroidZ=3250   GUID=fe0ca7f3-9ed1-4fbf-90c6-64201b805942
   Area=39   NumJoints=4   Joint1=48   Joint2=53   Joint3=14   Joint4=50   Perimeter=1200   AreaArea=50000   CentroidX=150   CentroidY=0   CentroidZ=3750   GUID=531ba649-270a-4435-a876-7d911d7ad9d3
   Area=40   NumJoints=4   Joint1=8   Joint2=40   Joint3=54   Joint4=55   Perimeter=1200   AreaArea=50000   CentroidX=850   CentroidY=0   CentroidZ=2250   GUID=90c45c42-634f-45a3-a3bc-1c43803907a2
   Area=41   NumJoints=4   Joint1=55   Joint2=54   Joint3=56   Joint4=57   Perimeter=1200   AreaArea=50000   CentroidX=850   CentroidY=0   CentroidZ=2750   GUID=2f65a097-f0a7-4425-a937-ee1df2d0c387
   Area=42   NumJoints=4   Joint1=57   Joint2=56   Joint3=58   Joint4=59   Perimeter=1200   AreaArea=50000   CentroidX=850   CentroidY=0   CentroidZ=3250   GUID=029afc88-9174-4e57-8baf-f2a79bdc29b5
   Area=43   NumJoints=4   Joint1=59   Joint2=58   Joint3=60   Joint4=13   Perimeter=1200   AreaArea=50000   CentroidX=850   CentroidY=0   CentroidZ=3750   GUID=308c1715-217d-4521-abb7-bd21592633fb
   Area=44   NumJoints=4   Joint1=40   Joint2=7   Joint3=61   Joint4=54   Perimeter=1200   AreaArea=50000   CentroidX=950   CentroidY=0   CentroidZ=2250   GUID=52b0292a-8499-4750-b5f8-2c236626c9c7
   Area=45   NumJoints=4   Joint1=54   Joint2=61   Joint3=62   Joint4=56   Perimeter=1200   AreaArea=50000   CentroidX=950   CentroidY=0   CentroidZ=2750   GUID=0868589b-c68e-4466-b030-7e75b297144b
   Area=46   NumJoints=4   Joint1=56   Joint2=62   Joint3=63   Joint4=58   Perimeter=1200   AreaArea=50000   CentroidX=950   CentroidY=0   CentroidZ=3250   GUID=ee7ada75-84bf-4555-93d6-e2fa0d6e4931
   Area=47   NumJoints=4   Joint1=58   Joint2=63   Joint3=16   Joint4=60   Perimeter=1200   AreaArea=50000   CentroidX=950   CentroidY=0   CentroidZ=3750   GUID=00d8301c-fd14-4fed-9cdb-432457778021
   Area=48   NumJoints=4   Joint1=3   Joint2=64   Joint3=65   Joint4=51   Perimeter=1300   AreaArea=75000   CentroidX=275   CentroidY=0   CentroidZ=2250   GUID=045f1328-8e02-438d-af0a-f1e31615d3b2
   Area=49   NumJoints=4   Joint1=51   Joint2=65   Joint3=66   Joint4=52   Perimeter=1300   AreaArea=75000   CentroidX=275   CentroidY=0   CentroidZ=2750   GUID=41d1bcc1-8993-473e-b45d-1f6d0e0d1626
   Area=50   NumJoints=4   Joint1=52   Joint2=66   Joint3=67   Joint4=53   Perimeter=1300   AreaArea=75000   CentroidX=275   CentroidY=0   CentroidZ=3250   GUID=1150e4e2-9135-43fb-8c82-cae96e1d6c14
   Area=51   NumJoints=4   Joint1=53   Joint2=67   Joint3=68   Joint4=14   Perimeter=1300   AreaArea=75000   CentroidX=275   CentroidY=0   CentroidZ=3750   GUID=ad83cbb2-1196-4cff-97e8-041907874ed8
   Area=52   NumJoints=4   Joint1=64   Joint2=19   Joint3=69   Joint4=65   Perimeter=1300   AreaArea=75000   CentroidX=425   CentroidY=0   CentroidZ=2250   GUID=ada51576-79b1-4e8d-ba71-9a10795263ba
   Area=53   NumJoints=4   Joint1=65   Joint2=69   Joint3=70   Joint4=66   Perimeter=1300   AreaArea=75000   CentroidX=425   CentroidY=0   CentroidZ=2750   GUID=1f7c08fa-fa74-4ada-a119-fb5f44055c02
   Area=54   NumJoints=4   Joint1=66   Joint2=70   Joint3=71   Joint4=67   Perimeter=1300   AreaArea=75000   CentroidX=425   CentroidY=0   CentroidZ=3250   GUID=9f527b61-f678-4136-8eff-bb4d405ea4f4
   Area=55   NumJoints=4   Joint1=67   Joint2=71   Joint3=20   Joint4=68   Perimeter=1300   AreaArea=75000   CentroidX=425   CentroidY=0   CentroidZ=3750   GUID=66a1773e-a438-4aba-8b56-c8da161821d1
   Area=56   NumJoints=4   Joint1=19   Joint2=72   Joint3=73   Joint4=69   Perimeter=1300   AreaArea=75000   CentroidX=575   CentroidY=0   CentroidZ=2250   GUID=3808e744-93c5-4f62-b7d4-7436de8e6b9b
   Area=57   NumJoints=4   Joint1=69   Joint2=73   Joint3=74   Joint4=70   Perimeter=1300   AreaArea=75000   CentroidX=575   CentroidY=0   CentroidZ=2750   GUID=068e814c-835d-49de-aa78-cb2995a88980
   Area=58   NumJoints=4   Joint1=70   Joint2=74   Joint3=75   Joint4=71   Perimeter=1300   AreaArea=75000   CentroidX=575   CentroidY=0   CentroidZ=3250   GUID=969b450a-0602-4cba-aca7-ad40946f0a5d
   Area=59   NumJoints=4   Joint1=71   Joint2=75   Joint3=76   Joint4=20   Perimeter=1300   AreaArea=75000   CentroidX=575   CentroidY=0   CentroidZ=3750   GUID=c2ae8cdb-97c0-4ca3-9eb1-5d26445fd8aa
   Area=60   NumJoints=4   Joint1=72   Joint2=8   Joint3=55   Joint4=73   Perimeter=1300   AreaArea=75000   CentroidX=725   CentroidY=0   CentroidZ=2250   GUID=15d1d850-57f9-47ab-994d-cf2e8f369886
   Area=61   NumJoints=4   Joint1=73   Joint2=55   Joint3=57   Joint4=74   Perimeter=1300   AreaArea=75000   CentroidX=725   CentroidY=0   CentroidZ=2750   GUID=aadcd986-c347-4d77-b8ad-06f0f86ba45c
   Area=62   NumJoints=4   Joint1=74   Joint2=57   Joint3=59   Joint4=75   Perimeter=1300   AreaArea=75000   CentroidX=725   CentroidY=0   CentroidZ=3250   GUID=acce0a2a-7d22-4ae5-b06e-04242331a95f
   Area=63   NumJoints=4   Joint1=75   Joint2=59   Joint3=13   Joint4=76   Perimeter=1300   AreaArea=75000   CentroidX=725   CentroidY=0   CentroidZ=3750   GUID=baab3b04-3360-4b4e-88d5-4a6d1e9ca4dd
   Area=64   NumJoints=4   Joint1=2   Joint2=77   Joint3=78   Joint4=30   Perimeter=1300   AreaArea=75000   CentroidX=275   CentroidY=0   CentroidZ=250   GUID=71069f4a-5a7e-4b71-8799-ef56599c528c
   Area=65   NumJoints=4   Joint1=30   Joint2=78   Joint3=79   Joint4=31   Perimeter=1300   AreaArea=75000   CentroidX=275   CentroidY=0   CentroidZ=750   GUID=ecdc0fc0-c566-4578-83e8-4be8c1c3c6f6
   Area=66   NumJoints=4   Joint1=31   Joint2=79   Joint3=80   Joint4=32   Perimeter=1300   AreaArea=75000   CentroidX=275   CentroidY=0   CentroidZ=1250   GUID=59c89fee-6749-4657-b85d-75c42eefe6d3
   Area=67   NumJoints=4   Joint1=32   Joint2=80   Joint3=64   Joint4=3   Perimeter=1300   AreaArea=75000   CentroidX=275   CentroidY=0   CentroidZ=1750   GUID=d10cc7df-de3e-4ade-816d-4c0f7ebee840
   Area=68   NumJoints=4   Joint1=77   Joint2=21   Joint3=81   Joint4=78   Perimeter=1300   AreaArea=75000   CentroidX=425   CentroidY=0   CentroidZ=250   GUID=db24469c-59de-44fb-9539-0665d99fb573
   Area=69   NumJoints=4   Joint1=78   Joint2=81   Joint3=82   Joint4=79   Perimeter=1300   AreaArea=75000   CentroidX=425   CentroidY=0   CentroidZ=750   GUID=bb0d4d42-e55d-4fb3-a515-40a486ef5cd4
   Area=70   NumJoints=4   Joint1=79   Joint2=82   Joint3=83   Joint4=80   Perimeter=1300   AreaArea=75000   CentroidX=425   CentroidY=0   CentroidZ=1250   GUID=1eb523ae-1975-4d09-beea-82815fc1a304
   Area=71   NumJoints=4   Joint1=80   Joint2=83   Joint3=19   Joint4=64   Perimeter=1300   AreaArea=75000   CentroidX=425   CentroidY=0   CentroidZ=1750   GUID=4b3b77fe-8b86-4eae-946b-8dd0274e2b0c
   Area=72   NumJoints=4   Joint1=21   Joint2=84   Joint3=85   Joint4=81   Perimeter=1300   AreaArea=75000   CentroidX=575   CentroidY=0   CentroidZ=250   GUID=95642e60-6dbb-4453-96cf-aaaed551014b
   Area=73   NumJoints=4   Joint1=81   Joint2=85   Joint3=86   Joint4=82   Perimeter=1300   AreaArea=75000   CentroidX=575   CentroidY=0   CentroidZ=750   GUID=9b79822f-5e2c-4f4f-8bd7-9f7829b5da72
   Area=74   NumJoints=4   Joint1=82   Joint2=86   Joint3=87   Joint4=83   Perimeter=1300   AreaArea=75000   CentroidX=575   CentroidY=0   CentroidZ=1250   GUID=ac037665-1384-4612-968b-4163f83efd57
   Area=75   NumJoints=4   Joint1=83   Joint2=87   Joint3=72   Joint4=19   Perimeter=1300   AreaArea=75000   CentroidX=575   CentroidY=0   CentroidZ=1750   GUID=4f47a3ed-6d88-4472-959e-100865872302
   Area=76   NumJoints=4   Joint1=84   Joint2=5   Joint3=35   Joint4=85   Perimeter=1300   AreaArea=75000   CentroidX=725   CentroidY=0   CentroidZ=250   GUID=652fa470-5527-462a-bebc-a4d6e0d08a70
   Area=77   NumJoints=4   Joint1=85   Joint2=35   Joint3=37   Joint4=86   Perimeter=1300   AreaArea=75000   CentroidX=725   CentroidY=0   CentroidZ=750   GUID=c5573e9c-042a-4666-812a-dd9f2900cb66
   Area=78   NumJoints=4   Joint1=86   Joint2=37   Joint3=39   Joint4=87   Perimeter=1300   AreaArea=75000   CentroidX=725   CentroidY=0   CentroidZ=1250   GUID=0dd23ef0-c992-4b63-8077-6c8cede871ea
   Area=79   NumJoints=4   Joint1=87   Joint2=39   Joint3=8   Joint4=72   Perimeter=1300   AreaArea=75000   CentroidX=725   CentroidY=0   CentroidZ=1750   GUID=8c14abc8-0f02-48cb-832c-e4c7c9a2231c
 
TABLE:  "JOINT CONSTRAINT ASSIGNMENTS"
   Joint=3   Constraint=DIAPH1_2000.   Type=Diaphragm
   Joint=4   Constraint=DIAPH1_2000.   Type=Diaphragm
   Joint=7   Constraint=DIAPH1_2000.   Type=Diaphragm
   Joint=8   Constraint=DIAPH1_2000.   Type=Diaphragm
 
TABLE:  "JOINT RESTRAINT ASSIGNMENTS"
   Joint=1   U1=Yes   U2=Yes   U3=Yes   R1=Yes   R2=Yes   R3=Yes
   Joint=2   U1=Yes   U2=Yes   U3=Yes   R1=Yes   R2=Yes   R3=Yes
   Joint=5   U1=Yes   U2=Yes   U3=Yes   R1=Yes   R2=Yes   R3=Yes
   Joint=6   U1=Yes   U2=Yes   U3=Yes   R1=Yes   R2=Yes   R3=Yes
 
TABLE:  "JOINT LOADS - FORCE"
   Joint=20   LoadPat=DEAD   CoordSys=GLOBAL   F1=0   F2=0   F3=-246   M1=0   M2=0   M3=0   GUID=bc44ca5d-b6d6-4086-8e29-29f533c115ae
 
TABLE:  "AREA SECTION ASSIGNMENTS"
   Area=16   Section=3%confinedconcrete   MatProp=Default
   Area=17   Section=3%confinedconcrete   MatProp=Default
   Area=18   Section=3%confinedconcrete   MatProp=Default
   Area=19   Section=3%confinedconcrete   MatProp=Default
   Area=20   Section=3%confinedconcrete   MatProp=Default
   Area=21   Section=3%confinedconcrete   MatProp=Default
   Area=22   Section=3%confinedconcrete   MatProp=Default
   Area=23   Section=3%confinedconcrete   MatProp=Default
   Area=24   Section=3%confinedconcrete   MatProp=Default
   Area=25   Section=3%confinedconcrete   MatProp=Default
   Area=26   Section=3%confinedconcrete   MatProp=Default
   Area=27   Section=3%confinedconcrete   MatProp=Default
   Area=28   Section=3%confinedconcrete   MatProp=Default
   Area=29   Section=3%confinedconcrete   MatProp=Default
   Area=30   Section=3%confinedconcrete   MatProp=Default
   Area=31   Section=3%confinedconcrete   MatProp=Default
   Area=32   Section=3%confinedconcrete   MatProp=Default
   Area=33   Section=3%confinedconcrete   MatProp=Default
   Area=34   Section=3%confinedconcrete   MatProp=Default
   Area=35   Section=3%confinedconcrete   MatProp=Default
# ... 12 like lines cut
   Area=48   Section=.3%unconfined   MatProp=Default
   Area=49   Section=.3%unconfined   MatProp=Default
   Area=50   Section=.3%unconfined   MatProp=Default
   Area=51   Section=.3%unconfined   MatProp=Default
   Area=52   Section=.3%unconfined   MatProp=Default
   Area=53   Section=.3%unconfined   MatProp=Default
   Area=54   Section=.3%unconfined   MatProp=Default
   Area=55   Section=.3%unconfined   MatProp=Default
   Area=56   Section=.3%unconfined   MatProp=Default
   Area=57   Section=.3%unconfined   MatProp=Default
   Area=58   Section=.3%unconfined   MatProp=Default
   Area=59   Section=.3%unconfined   MatProp=Default
   Area=60   Section=.3%unconfined   MatProp=Default
   Area=61   Section=.3%unconfined   MatProp=Default
   Area=62   Section=.3%unconfined   MatProp=Default
   Area=63   Section=.3%unconfined   MatProp=Default
   Area=64   Section=.3%unconfined   MatProp=Default
   Area=65   Section=.3%unconfined   MatProp=Default
   Area=66   Section=.3%unconfined   MatProp=Default
   Area=67   Section=.3%unconfined   MatProp=Default
# ... 12 like lines cut
 
TABLE:  "PREFERENCES - DIMENSIONAL"
   MergeTol=1   FineGrid=250   Nudge=250   SelectTol=3   SnapTol=12   SLineThick=1   PLineThick=4   MaxFont=12   MinFont=6   AutoZoom=10   ShrinkFact=70   TextFileLen=240
 
TABLE:  "PREFERENCES - STEEL DESIGN - AISC 360-16"
   THDesign=Envelopes   FrameType=SMF   PatLLF=0.75   SRatioLimit=0.95   MaxIter=1   SDC=D   SeisCode=No   SeisLoad=No   ImpFactor=1   SystemRho=1   SystemSds=0.5   SystemR=8   SystemCd=5.5   Omega0=3   Provision=LRFD _
        AMethod="Direct Analysis"   SOMethod="General 2nd Order"   SRMethod="Tau-b Fixed"   NLCoeff=0.002   PhiB=0.9   PhiC=0.9   PhiTY=0.9   PhiTF=0.75   PhiV=0.9   PhiVRolledI=1   PhiVT=0.9   PlugWeld=Yes   HSSWelding=ERW   HSSReduceT=No _
        CheckDefl=No   DLRat=120   SDLAndLLRat=120   LLRat=360   TotalRat=240   NetRat=240
 
TABLE:  "PREFERENCES - CONCRETE DESIGN - ACI 318-19"
   THDesign=Envelopes   NumCurves=24   NumPoints=11   MinEccen=Yes   BCCDesign=Yes   IgnoreBPu=Yes   CTorsion=Yes   PatLLF=0.75   UFLimit=0.95   SeisCat=D   Rho=1   Sds=0.5   PhiT=0.9   PhiCTied=0.65   PhiCSpiral=0.75   PhiV=0.75 _
        PhiVSeismic=0.6   PhiVJoint=0.85   TanTheta=1
 
TABLE:  "PREFERENCES - CONCRETE SHELL DESIGN - EUROCODE 2-2004"
   Country="CEN Default"   GammaS=1.15   GammaC=1.5   AlphaCC=1   AlphaCT=1   CrackCond="Program Determined"   ShrDesMet="Method 1"   CotTheta=1
 
TABLE:  "PREFERENCES - ALUMINUM DESIGN - AA 2015"
   THDesign=Envelopes   SRatioLimit=1   Provision=LRFD   LatFact=1.33333333333333   UseLatFact=No   Bridge=No   PhiTy=0.9   PhiTr=0.75   PhiC=0.9   PhiBo=0.9   PhiBr=0.75   PhiVo=0.9   PhiVr=0.75
 
TABLE:  "PREFERENCES - COLD FORMED DESIGN - AISI-16"
   THDesign=Envelopes   FrameType="Braced Frame"   SRatioLimit=1   SOMethod="General 2nd Order"   Provision=LRFD   LatFact=1.33333333333333   UseLatFact=No   PhiTy=0.9   PhiTr=0.75   PhiC=0.85   PhiB=0.9   PhiBPipe=0.95   PhiV=0.95
 
TABLE:  "OPTIONS - COLORS - DISPLAY"
   DeviceType=Screen   Points=Blue   LinesFrame=Blue   LinesFrmDL=Blue   LinesCable=Green   LinesTendon=Green   SpringLinks=Green   Restraints=Green   Releases=Green   Axes=Cyan   Text=Black   ShadowLines=Gray8Dark   GuideLines=Gray8Dark _
        Highlight=Red   Selection=10504778   AreaFillBot=Red   AreaFillTop=16744703   AreaFillSd=Red   AreaEdge=DarkRed   SolidF1=Red   SolidF2=Blue   SolidF3=Green   SolidF4=Yellow   SolidF5=White   SolidF6=Cyan   SolidEdge=DarkRed _
        Floor=Gray4   Background=White   BGLowLeft=White   BGLowRight=White   BGUpRight=White   Darkness=0.5
   DeviceType=Printer   Points=Gray8Dark   LinesFrame=Black   LinesFrmDL=Gray4   LinesCable=Black   LinesTendon=Black   SpringLinks=Gray8Dark   Restraints=Gray8Dark   Releases=Gray4   Axes=Black   Text=Black   ShadowLines=Gray4 _
        GuideLines=Gray4   Highlight=Black   Selection=Black   AreaFillBot=Gray4   AreaFillTop=Gray8Dark   AreaFillSd=Gray4   AreaEdge=Black   SolidF1=Gray1Light   SolidF2=Gray2   SolidF3=Gray3   SolidF4=Gray4   SolidF5=Gray5 _
        SolidF6=Gray6   SolidEdge=Black   Floor=Gray4   Background=White   BGLowLeft=White   BGLowRight=White   BGUpRight=White   Darkness=0.5
   DeviceType="Color Printer"   Points=Blue   LinesFrame=Blue   LinesFrmDL=Blue   LinesCable=Green   LinesTendon=Green   SpringLinks=Green   Restraints=Green   Releases=Green   Axes=Cyan   Text=Black   ShadowLines=Gray8Dark _
        GuideLines=Gray8Dark   Highlight=Red   Selection=10504778   AreaFillBot=Red   AreaFillTop=16744703   AreaFillSd=Red   AreaEdge=DarkRed   SolidF1=Red   SolidF2=Blue   SolidF3=Green   SolidF4=Yellow   SolidF5=White   SolidF6=Cyan _
        SolidEdge=DarkRed   Floor=Gray4   Background=White   BGLowLeft=White   BGLowRight=White   BGUpRight=White   Darkness=0.5
 
TABLE:  "OPTIONS - COLORS - OUTPUT"
   DeviceType=Screen   Contour1=13107400   Contour2=6553828   Contour3=Red   Contour4=16639   Contour5=Orange   Contour6=43775   Contour7=54527   Contour8=Yellow   Contour9=65408   Contour10=Green   Contour11=8453888   Contour12=Cyan _
        Contour13=16755200   Contour14=16733440   Contour15=Blue   Transpare=0   Ratio1=Cyan   Ratio2=Green   Ratio3=Yellow   Ratio4=Orange   Ratio5=Red   RatioNotD=Gray4   RatioNotC=Red   RatioVal1=0.5   RatioVal2=0.7   RatioVal3=0.9 _
        RatioVal4=1   DFillPos=Blue   DFillNeg=Red   DFillRPos=Green   DFillRNeg=Green
   DeviceType=Printer   Contour1=Black   Contour2=3158064   Contour3=4210752   Contour4=5263440   Contour5=6316128   Contour6=7368816   Contour7=Gray8Dark   Contour8=Gray7   Contour9=Gray6   Contour10=Gray5   Contour11=Gray4 _
        Contour12=Gray3   Contour13=Gray2   Contour14=Gray1Light   Contour15=White   Transpare=0   Ratio1=Gray2   Ratio2=Gray4   Ratio3=Gray8Dark   Ratio4=4210752   Ratio5=Black   RatioNotD=Gray4   RatioNotC=Black   RatioVal1=0.5 _
        RatioVal2=0.7   RatioVal3=0.9   RatioVal4=1   DFillPos=Gray8Dark   DFillNeg=Gray8Dark   DFillRPos=4210752   DFillRNeg=4210752
   DeviceType="Color Printer"   Contour1=13107400   Contour2=6553828   Contour3=Red   Contour4=16639   Contour5=Orange   Contour6=43775   Contour7=54527   Contour8=Yellow   Contour9=65408   Contour10=Green   Contour11=8453888 _
        Contour12=Cyan   Contour13=16755200   Contour14=16733440   Contour15=Blue   Transpare=0   Ratio1=Cyan   Ratio2=Green   Ratio3=Yellow   Ratio4=Orange   Ratio5=Red   RatioNotD=Gray4   RatioNotC=Red   RatioVal1=0.5   RatioVal2=0.7 _
        RatioVal3=0.9   RatioVal4=1   DFillPos=Blue   DFillNeg=Red   DFillRPos=Green   DFillRNeg=Green
 
TABLE:  "DATABASE FORMAT TYPES"
   UnitsCurr=Yes   OverrideE=No
 
TABLE:  "PROJECT INFORMATION"
   Item="Company Name"
   Item="Client Name"
   Item="Project Name"
   Item="Project Number"
   Item="Model Name"
   Item="Model Description"
   Item="Revision Number"
   Item="Frame Type"
   Item=Engineer
   Item=Checker
   Item=Supervisor
   Item="Issue Code"
   Item="Design Code"
 
END TABLE DATA
